F54.pdb
 OpenBabel07092115043D

 29 32  0  0  0  0  0  0  0  0999 V2000
    7.3560   32.1390    5.8560 C   0  0  0  0  0  0  0  0  0  0  0  0
    8.4900   31.6590    6.5140 C   0  0  0  0  0  0  0  0  0  0  0  0
    9.7000   32.3090    6.3230 C   0  0  0  0  0  0  0  0  0  0  0  0
    7.4490   33.2390    5.0360 C   0  0  0  0  0  0  0  0  0  0  0  0
    8.6510   33.8850    4.8380 C   0  0  0  0  0  0  0  0  0  0  0  0
    9.7820   33.4180    5.4860 C   0  0  0  0  0  0  0  0  0  0  0  0
   11.1330   34.0880    5.3180 C   0  0  0  0  0  0  0  0  0  0  0  0
   13.0330   34.9070    6.3750 C   0  0  0  0  0  0  0  0  0  0  0  0
   13.7130   35.1360    7.5890 C   0  0  0  0  0  0  0  0  0  0  0  0
   14.9660   35.7210    7.5820 C   0  0  0  0  0  0  0  0  0  0  0  0
   15.5410   36.0670    6.3640 C   0  0  0  0  0  0  0  0  0  0  0  0
   14.8820   35.8250    5.1650 C   0  0  0  0  0  0  0  0  0  0  0  0
   13.6110   35.2440    5.1730 C   0  0  0  0  0  0  0  0  0  0  0  0
   12.9160   34.9870    3.9610 C   0  0  0  0  0  0  0  0  0  0  0  0
   13.4880   35.3580    2.5950 C   0  0  0  0  0  0  0  0  0  0  0  0
   11.6620   34.4020    4.0570 C   0  0  0  0  0  0  0  0  0  0  0  0
   10.8990   34.1200    2.7630 C   0  0  0  0  0  0  0  0  0  0  0  0
   16.7890   36.6120    6.3350 F   0  0  0  0  0  0  0  0  0  0  0  0
   11.8210   34.3330    6.4280 N   0  0  0  0  0  0  0  0  0  0  0  0
   14.3710   34.6790    2.0070 O   0  0  0  0  0  0  0  0  0  0  0  0
   13.0540   36.3900    2.0260 O   0  0  0  0  0  0  0  0  0  0  0  0
    2.1690   29.6350    5.9660 C   0  0  0  0  0  0  0  0  0  0  0  0
    3.5440   30.3010    5.9400 C   0  0  0  0  0  0  0  0  0  0  0  0
    4.1640   30.5190    4.7190 C   0  0  0  0  0  0  0  0  0  0  0  0
    5.4090   31.1130    4.6780 C   0  0  0  0  0  0  0  0  0  0  0  0
    5.3170   31.2350    7.0630 C   0  0  0  0  0  0  0  0  0  0  0  0
    5.9820   31.4930    5.9010 C   0  0  0  0  0  0  0  0  0  0  0  0
    4.1280   30.6600    7.0680 N   0  0  0  0  0  0  0  0  0  0  0  0
    6.1390   31.7230    8.5610 Cl  0  0  0  0  0  0  0  0  0  0  0  0
  1 27  1  0  0  0  0
  1  2  1  0  0  0  0
  3  2  2  0  0  0  0
  4  1  2  0  0  0  0
  5  4  1  0  0  0  0
  5  6  2  0  0  0  0
  6  3  1  0  0  0  0
  7  6  1  0  0  0  0
  7 19  1  0  0  0  0
  8 19  2  0  0  0  0
  8  9  1  0  0  0  0
 10  9  2  0  0  0  0
 11 10  1  0  0  0  0
 12 13  1  0  0  0  0
 12 11  2  0  0  0  0
 13  8  1  0  0  0  0
 14 16  1  0  0  0  0
 14 13  2  0  0  0  0
 15 14  1  0  0  0  0
 16  7  2  0  0  0  0
 17 16  1  0  0  0  0
 18 11  1  0  0  0  0
 20 15  2  0  0  0  0
 21 15  1  0  0  0  0
 23 22  1  0  0  0  0
 23 28  1  0  0  0  0
 24 23  2  0  0  0  0
 25 24  1  0  0  0  0
 25 27  2  0  0  0  0
 26 28  2  0  0  0  0
 26 29  1  0  0  0  0
 27 26  1  0  0  0  0
M  END
>  <REMARK>
 800 SITE_DESCRIPTION: binding site for residue F54 A 503                 

>  <HET>
 F54  A 503      37                                                       

>  <SITE>
   1 AC4  3 TYR A  38  PHE A  62  F54 A 503                               

$$$$
